
OS:Version,
  {8729ee56-f732-438b-9c42-569aacbe6c22}, !- Handle
  2.8.1;                                  !- Version Identifier

OS:BuildingStory,
  {5d481636-6762-47f4-a38f-a8ab4de43607}, !- Handle
  Story 1,                                !- Name
  0,                                      !- Nominal Z Coordinate {m}
  3.2,                                    !- Nominal Floor to Floor Height {m}
  ,                                       !- Default Construction Set Name
  ,                                       !- Default Schedule Set Name
  ;                                       !- Group Rendering Name

OS:Space,
  {ed95b481-94a3-4f7b-8dda-73b5f7601f6b}, !- Handle
  Story 1 West Left Perimeter Space,      !- Name
  ,                                       !- Space Type Name
  ,                                       !- Default Construction Set Name
  ,                                       !- Default Schedule Set Name
  -0,                                     !- Direction of Relative North {deg}
  0,                                      !- X Origin {m}
  0,                                      !- Y Origin {m}
  0,                                      !- Z Origin {m}
  {5d481636-6762-47f4-a38f-a8ab4de43607}, !- Building Story Name
  {4681d73d-0f13-49c4-8bbd-97d8e1c67e30}; !- Thermal Zone Name

OS:Surface,
  {3bf61205-f800-4ad5-a860-d6ea86dffa88}, !- Handle
  Surface 1,                              !- Name
  Floor,                                  !- Surface Type
  ,                                       !- Construction Name
  {ed95b481-94a3-4f7b-8dda-73b5f7601f6b}, !- Space Name
  Ground,                                 !- Outside Boundary Condition
  ,                                       !- Outside Boundary Condition Object
  NoSun,                                  !- Sun Exposure
  NoWind,                                 !- Wind Exposure
  ,                                       !- View Factor to Ground
  ,                                       !- Number of Vertices
  0, 0, 0,                                !- X,Y,Z Vertex 1 {m}
  0, 113.389341902768, 0,                 !- X,Y,Z Vertex 2 {m}
  1.52333333333333, 111.866008569435, 0,  !- X,Y,Z Vertex 3 {m}
  1.52333333333333, 1.52333333333333, 0;  !- X,Y,Z Vertex 4 {m}

OS:Surface,
  {426b9371-314e-4bdc-aa53-be49731f6f37}, !- Handle
  Surface 2,                              !- Name
  Wall,                                   !- Surface Type
  ,                                       !- Construction Name
  {ed95b481-94a3-4f7b-8dda-73b5f7601f6b}, !- Space Name
  Outdoors,                               !- Outside Boundary Condition
  ,                                       !- Outside Boundary Condition Object
  SunExposed,                             !- Sun Exposure
  WindExposed,                            !- Wind Exposure
  ,                                       !- View Factor to Ground
  ,                                       !- Number of Vertices
  0, 113.389341902768, 3.2,               !- X,Y,Z Vertex 1 {m}
  0, 113.389341902768, 0,                 !- X,Y,Z Vertex 2 {m}
  0, 0, 0,                                !- X,Y,Z Vertex 3 {m}
  0, 0, 3.2;                              !- X,Y,Z Vertex 4 {m}

OS:Surface,
  {89d66007-5894-49c5-817f-9d69e02e7c92}, !- Handle
  Surface 3,                              !- Name
  Wall,                                   !- Surface Type
  ,                                       !- Construction Name
  {ed95b481-94a3-4f7b-8dda-73b5f7601f6b}, !- Space Name
  Surface,                                !- Outside Boundary Condition
  {c91200ab-ffef-4116-9aef-3b44413de024}, !- Outside Boundary Condition Object
  NoSun,                                  !- Sun Exposure
  NoWind,                                 !- Wind Exposure
  ,                                       !- View Factor to Ground
  ,                                       !- Number of Vertices
  1.52333333333333, 111.866008569435, 3.2, !- X,Y,Z Vertex 1 {m}
  1.52333333333333, 111.866008569435, 0,  !- X,Y,Z Vertex 2 {m}
  0, 113.389341902768, 0,                 !- X,Y,Z Vertex 3 {m}
  0, 113.389341902768, 3.2;               !- X,Y,Z Vertex 4 {m}

OS:Surface,
  {8ae1cfd6-28dc-428a-bfa3-2c51775c2f4b}, !- Handle
  Surface 4,                              !- Name
  Wall,                                   !- Surface Type
  ,                                       !- Construction Name
  {ed95b481-94a3-4f7b-8dda-73b5f7601f6b}, !- Space Name
  Surface,                                !- Outside Boundary Condition
  {f6cd4b69-22a9-4a2d-a226-153cabccadb2}, !- Outside Boundary Condition Object
  NoSun,                                  !- Sun Exposure
  NoWind,                                 !- Wind Exposure
  ,                                       !- View Factor to Ground
  ,                                       !- Number of Vertices
  1.52333333333333, 1.52333333333333, 3.2, !- X,Y,Z Vertex 1 {m}
  1.52333333333333, 1.52333333333333, 0,  !- X,Y,Z Vertex 2 {m}
  1.52333333333333, 111.866008569435, 0,  !- X,Y,Z Vertex 3 {m}
  1.52333333333333, 111.866008569435, 3.2; !- X,Y,Z Vertex 4 {m}

OS:Surface,
  {e7cb0a4f-a1a8-4d4d-a8fb-c1a7f193fea9}, !- Handle
  Surface 5,                              !- Name
  Wall,                                   !- Surface Type
  ,                                       !- Construction Name
  {ed95b481-94a3-4f7b-8dda-73b5f7601f6b}, !- Space Name
  Surface,                                !- Outside Boundary Condition
  {f8af3afa-84bb-466d-b856-f369036a69fe}, !- Outside Boundary Condition Object
  NoSun,                                  !- Sun Exposure
  NoWind,                                 !- Wind Exposure
  ,                                       !- View Factor to Ground
  ,                                       !- Number of Vertices
  0, 0, 3.2,                              !- X,Y,Z Vertex 1 {m}
  0, 0, 0,                                !- X,Y,Z Vertex 2 {m}
  1.52333333333333, 1.52333333333333, 0,  !- X,Y,Z Vertex 3 {m}
  1.52333333333333, 1.52333333333333, 3.2; !- X,Y,Z Vertex 4 {m}

OS:Surface,
  {2fdc0159-fc95-4546-8e10-874d158f923c}, !- Handle
  Surface 6,                              !- Name
  RoofCeiling,                            !- Surface Type
  ,                                       !- Construction Name
  {ed95b481-94a3-4f7b-8dda-73b5f7601f6b}, !- Space Name
  Surface,                                !- Outside Boundary Condition
  {1a638151-d5ad-401c-a9cd-548f7f8c9434}, !- Outside Boundary Condition Object
  NoSun,                                  !- Sun Exposure
  NoWind,                                 !- Wind Exposure
  ,                                       !- View Factor to Ground
  ,                                       !- Number of Vertices
  1.52333333333333, 1.52333333333333, 3.2, !- X,Y,Z Vertex 1 {m}
  1.52333333333333, 111.866008569435, 3.2, !- X,Y,Z Vertex 2 {m}
  0, 113.389341902768, 3.2,               !- X,Y,Z Vertex 3 {m}
  0, 0, 3.2;                              !- X,Y,Z Vertex 4 {m}

OS:Space,
  {bad41f00-488d-4c4e-8810-8c7983e0b482}, !- Handle
  Story 1 North Left Perimeter Space,     !- Name
  ,                                       !- Space Type Name
  ,                                       !- Default Construction Set Name
  ,                                       !- Default Schedule Set Name
  -0,                                     !- Direction of Relative North {deg}
  1.52333333333333,                       !- X Origin {m}
  111.866008569435,                       !- Y Origin {m}
  0,                                      !- Z Origin {m}
  {5d481636-6762-47f4-a38f-a8ab4de43607}, !- Building Story Name
  {f79672d6-d2b7-44a6-ab15-1e0838ddf839}; !- Thermal Zone Name

OS:Surface,
  {15dd653a-e5c9-43dd-addb-ea4eb8c26d2e}, !- Handle
  Surface 7,                              !- Name
  Floor,                                  !- Surface Type
  ,                                       !- Construction Name
  {bad41f00-488d-4c4e-8810-8c7983e0b482}, !- Space Name
  Ground,                                 !- Outside Boundary Condition
  ,                                       !- Outside Boundary Condition Object
  NoSun,                                  !- Sun Exposure
  NoWind,                                 !- Wind Exposure
  ,                                       !- View Factor to Ground
  ,                                       !- Number of Vertices
  -1.52333333333333, 1.52333333333314, 0, !- X,Y,Z Vertex 1 {m}
  36.2731139675894, 1.52333333333314, 0,  !- X,Y,Z Vertex 2 {m}
  34.7497806342561, 1.4210854715202e-13, 0, !- X,Y,Z Vertex 3 {m}
  -3.33066907387547e-15, 1.4210854715202e-13, 0; !- X,Y,Z Vertex 4 {m}

OS:Surface,
  {3293a5c6-d36c-4c95-8395-05e65a76c225}, !- Handle
  Surface 8,                              !- Name
  Wall,                                   !- Surface Type
  ,                                       !- Construction Name
  {bad41f00-488d-4c4e-8810-8c7983e0b482}, !- Space Name
  Outdoors,                               !- Outside Boundary Condition
  ,                                       !- Outside Boundary Condition Object
  SunExposed,                             !- Sun Exposure
  WindExposed,                            !- Wind Exposure
  ,                                       !- View Factor to Ground
  ,                                       !- Number of Vertices
  36.2731139675894, 1.52333333333314, 3.2, !- X,Y,Z Vertex 1 {m}
  36.2731139675894, 1.52333333333314, 0,  !- X,Y,Z Vertex 2 {m}
  -1.52333333333333, 1.52333333333314, 0, !- X,Y,Z Vertex 3 {m}
  -1.52333333333333, 1.52333333333314, 3.2; !- X,Y,Z Vertex 4 {m}

OS:Surface,
  {9e6fab25-8a2e-4259-827e-5ecd0fbb5cc2}, !- Handle
  Surface 9,                              !- Name
  Wall,                                   !- Surface Type
  ,                                       !- Construction Name
  {bad41f00-488d-4c4e-8810-8c7983e0b482}, !- Space Name
  Surface,                                !- Outside Boundary Condition
  {8384c99f-d556-4db1-b79b-bfba4ffdce72}, !- Outside Boundary Condition Object
  NoSun,                                  !- Sun Exposure
  NoWind,                                 !- Wind Exposure
  ,                                       !- View Factor to Ground
  ,                                       !- Number of Vertices
  34.7497806342561, 1.4210854715202e-13, 3.2, !- X,Y,Z Vertex 1 {m}
  34.7497806342561, 1.4210854715202e-13, 0, !- X,Y,Z Vertex 2 {m}
  36.2731139675894, 1.52333333333314, 0,  !- X,Y,Z Vertex 3 {m}
  36.2731139675894, 1.52333333333314, 3.2; !- X,Y,Z Vertex 4 {m}

OS:Surface,
  {a4918aec-ee9b-4b15-b9d0-a6121f80cc7d}, !- Handle
  Surface 10,                             !- Name
  Wall,                                   !- Surface Type
  ,                                       !- Construction Name
  {bad41f00-488d-4c4e-8810-8c7983e0b482}, !- Space Name
  Surface,                                !- Outside Boundary Condition
  {ca24416b-7788-4cf3-97f7-69395df1d7af}, !- Outside Boundary Condition Object
  NoSun,                                  !- Sun Exposure
  NoWind,                                 !- Wind Exposure
  ,                                       !- View Factor to Ground
  ,                                       !- Number of Vertices
  -3.33066907387547e-15, 1.4210854715202e-13, 3.2, !- X,Y,Z Vertex 1 {m}
  -3.33066907387547e-15, 1.4210854715202e-13, 0, !- X,Y,Z Vertex 2 {m}
  34.7497806342561, 1.4210854715202e-13, 0, !- X,Y,Z Vertex 3 {m}
  34.7497806342561, 1.4210854715202e-13, 3.2; !- X,Y,Z Vertex 4 {m}

OS:Surface,
  {c91200ab-ffef-4116-9aef-3b44413de024}, !- Handle
  Surface 11,                             !- Name
  Wall,                                   !- Surface Type
  ,                                       !- Construction Name
  {bad41f00-488d-4c4e-8810-8c7983e0b482}, !- Space Name
  Surface,                                !- Outside Boundary Condition
  {89d66007-5894-49c5-817f-9d69e02e7c92}, !- Outside Boundary Condition Object
  NoSun,                                  !- Sun Exposure
  NoWind,                                 !- Wind Exposure
  ,                                       !- View Factor to Ground
  ,                                       !- Number of Vertices
  -1.52333333333333, 1.52333333333314, 3.2, !- X,Y,Z Vertex 1 {m}
  -1.52333333333333, 1.52333333333314, 0, !- X,Y,Z Vertex 2 {m}
  -3.33066907387547e-15, 1.4210854715202e-13, 0, !- X,Y,Z Vertex 3 {m}
  -3.33066907387547e-15, 1.4210854715202e-13, 3.2; !- X,Y,Z Vertex 4 {m}

OS:Surface,
  {edc68c37-339e-4d40-be56-3e437253d11c}, !- Handle
  Surface 12,                             !- Name
  RoofCeiling,                            !- Surface Type
  ,                                       !- Construction Name
  {bad41f00-488d-4c4e-8810-8c7983e0b482}, !- Space Name
  Surface,                                !- Outside Boundary Condition
  {3e4e6bae-1d34-46c2-8e46-73b03ed85e0d}, !- Outside Boundary Condition Object
  NoSun,                                  !- Sun Exposure
  NoWind,                                 !- Wind Exposure
  ,                                       !- View Factor to Ground
  ,                                       !- Number of Vertices
  -3.33066907387547e-15, 1.4210854715202e-13, 3.2, !- X,Y,Z Vertex 1 {m}
  34.7497806342561, 1.4210854715202e-13, 3.2, !- X,Y,Z Vertex 2 {m}
  36.2731139675894, 1.52333333333314, 3.2, !- X,Y,Z Vertex 3 {m}
  -1.52333333333333, 1.52333333333314, 3.2; !- X,Y,Z Vertex 4 {m}

OS:Space,
  {b339bb22-1664-4ae3-8e01-81ecc552537f}, !- Handle
  Story 1 East Left Perimeter Space,      !- Name
  ,                                       !- Space Type Name
  ,                                       !- Default Construction Set Name
  ,                                       !- Default Schedule Set Name
  -0,                                     !- Direction of Relative North {deg}
  36.2731139675894,                       !- X Origin {m}
  36.2731139675894,                       !- Y Origin {m}
  0,                                      !- Z Origin {m}
  {5d481636-6762-47f4-a38f-a8ab4de43607}, !- Building Story Name
  {d79dfb6d-1d10-4618-8563-719bb3f476d6}; !- Thermal Zone Name

OS:Surface,
  {600f5ec9-d005-4615-b4bb-288ae15f85a8}, !- Handle
  Surface 13,                             !- Name
  Floor,                                  !- Surface Type
  ,                                       !- Construction Name
  {b339bb22-1664-4ae3-8e01-81ecc552537f}, !- Space Name
  Ground,                                 !- Outside Boundary Condition
  ,                                       !- Outside Boundary Condition Object
  NoSun,                                  !- Sun Exposure
  NoWind,                                 !- Wind Exposure
  ,                                       !- View Factor to Ground
  ,                                       !- Number of Vertices
  1.52333333333331, 77.1162279351786, 0,  !- X,Y,Z Vertex 1 {m}
  1.52333333333331, 1.52333333333331, 0,  !- X,Y,Z Vertex 2 {m}
  7.105427357601e-15, 1.4210854715202e-14, 0, !- X,Y,Z Vertex 3 {m}
  7.105427357601e-15, 75.5928946018456, 0; !- X,Y,Z Vertex 4 {m}

OS:Surface,
  {a8fbddb8-38be-4f4c-8fbc-1c54afc7158c}, !- Handle
  Surface 14,                             !- Name
  Wall,                                   !- Surface Type
  ,                                       !- Construction Name
  {b339bb22-1664-4ae3-8e01-81ecc552537f}, !- Space Name
  Outdoors,                               !- Outside Boundary Condition
  ,                                       !- Outside Boundary Condition Object
  SunExposed,                             !- Sun Exposure
  WindExposed,                            !- Wind Exposure
  ,                                       !- View Factor to Ground
  ,                                       !- Number of Vertices
  1.52333333333331, 1.52333333333331, 3.2, !- X,Y,Z Vertex 1 {m}
  1.52333333333331, 1.52333333333331, 0,  !- X,Y,Z Vertex 2 {m}
  1.52333333333331, 77.1162279351786, 0,  !- X,Y,Z Vertex 3 {m}
  1.52333333333331, 77.1162279351786, 3.2; !- X,Y,Z Vertex 4 {m}

OS:Surface,
  {8cf73bec-a748-4104-b768-14dd2792a84d}, !- Handle
  Surface 15,                             !- Name
  Wall,                                   !- Surface Type
  ,                                       !- Construction Name
  {b339bb22-1664-4ae3-8e01-81ecc552537f}, !- Space Name
  Surface,                                !- Outside Boundary Condition
  {ca2c649e-c01a-49d2-9b9a-bd2c5047a301}, !- Outside Boundary Condition Object
  NoSun,                                  !- Sun Exposure
  NoWind,                                 !- Wind Exposure
  ,                                       !- View Factor to Ground
  ,                                       !- Number of Vertices
  7.105427357601e-15, 1.4210854715202e-14, 3.2, !- X,Y,Z Vertex 1 {m}
  7.105427357601e-15, 1.4210854715202e-14, 0, !- X,Y,Z Vertex 2 {m}
  1.52333333333331, 1.52333333333331, 0,  !- X,Y,Z Vertex 3 {m}
  1.52333333333331, 1.52333333333331, 3.2; !- X,Y,Z Vertex 4 {m}

OS:Surface,
  {477f9328-574f-40c6-b779-7f66ecdfc02a}, !- Handle
  Surface 16,                             !- Name
  Wall,                                   !- Surface Type
  ,                                       !- Construction Name
  {b339bb22-1664-4ae3-8e01-81ecc552537f}, !- Space Name
  Surface,                                !- Outside Boundary Condition
  {b53ea97b-d1f2-4621-8a63-8af19c189768}, !- Outside Boundary Condition Object
  NoSun,                                  !- Sun Exposure
  NoWind,                                 !- Wind Exposure
  ,                                       !- View Factor to Ground
  ,                                       !- Number of Vertices
  7.105427357601e-15, 75.5928946018456, 3.2, !- X,Y,Z Vertex 1 {m}
  7.105427357601e-15, 75.5928946018456, 0, !- X,Y,Z Vertex 2 {m}
  7.105427357601e-15, 1.4210854715202e-14, 0, !- X,Y,Z Vertex 3 {m}
  7.105427357601e-15, 1.4210854715202e-14, 3.2; !- X,Y,Z Vertex 4 {m}

OS:Surface,
  {8384c99f-d556-4db1-b79b-bfba4ffdce72}, !- Handle
  Surface 17,                             !- Name
  Wall,                                   !- Surface Type
  ,                                       !- Construction Name
  {b339bb22-1664-4ae3-8e01-81ecc552537f}, !- Space Name
  Surface,                                !- Outside Boundary Condition
  {9e6fab25-8a2e-4259-827e-5ecd0fbb5cc2}, !- Outside Boundary Condition Object
  NoSun,                                  !- Sun Exposure
  NoWind,                                 !- Wind Exposure
  ,                                       !- View Factor to Ground
  ,                                       !- Number of Vertices
  1.52333333333331, 77.1162279351786, 3.2, !- X,Y,Z Vertex 1 {m}
  1.52333333333331, 77.1162279351786, 0,  !- X,Y,Z Vertex 2 {m}
  7.105427357601e-15, 75.5928946018456, 0, !- X,Y,Z Vertex 3 {m}
  7.105427357601e-15, 75.5928946018456, 3.2; !- X,Y,Z Vertex 4 {m}

OS:Surface,
  {aa05868a-5bdf-4490-8b85-40e6778b4b1d}, !- Handle
  Surface 18,                             !- Name
  RoofCeiling,                            !- Surface Type
  ,                                       !- Construction Name
  {b339bb22-1664-4ae3-8e01-81ecc552537f}, !- Space Name
  Surface,                                !- Outside Boundary Condition
  {e869a68f-79e8-40ea-8de8-7b02aa151223}, !- Outside Boundary Condition Object
  NoSun,                                  !- Sun Exposure
  NoWind,                                 !- Wind Exposure
  ,                                       !- View Factor to Ground
  ,                                       !- Number of Vertices
  7.105427357601e-15, 75.5928946018456, 3.2, !- X,Y,Z Vertex 1 {m}
  7.105427357601e-15, 1.4210854715202e-14, 3.2, !- X,Y,Z Vertex 2 {m}
  1.52333333333331, 1.52333333333331, 3.2, !- X,Y,Z Vertex 3 {m}
  1.52333333333331, 77.1162279351786, 3.2; !- X,Y,Z Vertex 4 {m}

OS:Space,
  {44d551f2-64a1-48be-95c9-c8ecd97ad2b2}, !- Handle
  Story 1 North Lower Perimeter Space,    !- Name
  ,                                       !- Space Type Name
  ,                                       !- Default Construction Set Name
  ,                                       !- Default Schedule Set Name
  -0,                                     !- Direction of Relative North {deg}
  36.2731139675894,                       !- X Origin {m}
  36.2731139675894,                       !- Y Origin {m}
  0,                                      !- Z Origin {m}
  {5d481636-6762-47f4-a38f-a8ab4de43607}, !- Building Story Name
  {52385b0a-90bd-4922-8100-4ecca478e513}; !- Thermal Zone Name

OS:Surface,
  {6b09563c-caf7-43c3-9263-ac69b37b30d8}, !- Handle
  Surface 19,                             !- Name
  Floor,                                  !- Surface Type
  ,                                       !- Construction Name
  {44d551f2-64a1-48be-95c9-c8ecd97ad2b2}, !- Space Name
  Ground,                                 !- Outside Boundary Condition
  ,                                       !- Outside Boundary Condition Object
  NoSun,                                  !- Sun Exposure
  NoWind,                                 !- Wind Exposure
  ,                                       !- View Factor to Ground
  ,                                       !- Number of Vertices
  1.52333333333331, 1.52333333333331, 0,  !- X,Y,Z Vertex 1 {m}
  39.319780634256, 1.52333333333331, 0,   !- X,Y,Z Vertex 2 {m}
  40.8431139675894, 1.4210854715202e-14, 0, !- X,Y,Z Vertex 3 {m}
  7.105427357601e-15, 1.4210854715202e-14, 0; !- X,Y,Z Vertex 4 {m}

OS:Surface,
  {332f2b52-5834-46c7-9f4b-85a0c348c501}, !- Handle
  Surface 20,                             !- Name
  Wall,                                   !- Surface Type
  ,                                       !- Construction Name
  {44d551f2-64a1-48be-95c9-c8ecd97ad2b2}, !- Space Name
  Outdoors,                               !- Outside Boundary Condition
  ,                                       !- Outside Boundary Condition Object
  SunExposed,                             !- Sun Exposure
  WindExposed,                            !- Wind Exposure
  ,                                       !- View Factor to Ground
  ,                                       !- Number of Vertices
  39.319780634256, 1.52333333333331, 3.2, !- X,Y,Z Vertex 1 {m}
  39.319780634256, 1.52333333333331, 0,   !- X,Y,Z Vertex 2 {m}
  1.52333333333331, 1.52333333333331, 0,  !- X,Y,Z Vertex 3 {m}
  1.52333333333331, 1.52333333333331, 3.2; !- X,Y,Z Vertex 4 {m}

OS:Surface,
  {8d86870a-89a9-458a-90a0-3a88560620a9}, !- Handle
  Surface 21,                             !- Name
  Wall,                                   !- Surface Type
  ,                                       !- Construction Name
  {44d551f2-64a1-48be-95c9-c8ecd97ad2b2}, !- Space Name
  Surface,                                !- Outside Boundary Condition
  {21795cfa-095a-4305-b64c-c474e55abb4a}, !- Outside Boundary Condition Object
  NoSun,                                  !- Sun Exposure
  NoWind,                                 !- Wind Exposure
  ,                                       !- View Factor to Ground
  ,                                       !- Number of Vertices
  40.8431139675894, 1.4210854715202e-14, 3.2, !- X,Y,Z Vertex 1 {m}
  40.8431139675894, 1.4210854715202e-14, 0, !- X,Y,Z Vertex 2 {m}
  39.319780634256, 1.52333333333331, 0,   !- X,Y,Z Vertex 3 {m}
  39.319780634256, 1.52333333333331, 3.2; !- X,Y,Z Vertex 4 {m}

OS:Surface,
  {b64c391b-30c7-4b67-a41f-af16ba1aef93}, !- Handle
  Surface 22,                             !- Name
  Wall,                                   !- Surface Type
  ,                                       !- Construction Name
  {44d551f2-64a1-48be-95c9-c8ecd97ad2b2}, !- Space Name
  Surface,                                !- Outside Boundary Condition
  {98e4a350-a09d-42b3-807c-11637199f1b4}, !- Outside Boundary Condition Object
  NoSun,                                  !- Sun Exposure
  NoWind,                                 !- Wind Exposure
  ,                                       !- View Factor to Ground
  ,                                       !- Number of Vertices
  7.105427357601e-15, 1.4210854715202e-14, 3.2, !- X,Y,Z Vertex 1 {m}
  7.105427357601e-15, 1.4210854715202e-14, 0, !- X,Y,Z Vertex 2 {m}
  40.8431139675894, 1.4210854715202e-14, 0, !- X,Y,Z Vertex 3 {m}
  40.8431139675894, 1.4210854715202e-14, 3.2; !- X,Y,Z Vertex 4 {m}

OS:Surface,
  {ca2c649e-c01a-49d2-9b9a-bd2c5047a301}, !- Handle
  Surface 23,                             !- Name
  Wall,                                   !- Surface Type
  ,                                       !- Construction Name
  {44d551f2-64a1-48be-95c9-c8ecd97ad2b2}, !- Space Name
  Surface,                                !- Outside Boundary Condition
  {8cf73bec-a748-4104-b768-14dd2792a84d}, !- Outside Boundary Condition Object
  NoSun,                                  !- Sun Exposure
  NoWind,                                 !- Wind Exposure
  ,                                       !- View Factor to Ground
  ,                                       !- Number of Vertices
  1.52333333333331, 1.52333333333331, 3.2, !- X,Y,Z Vertex 1 {m}
  1.52333333333331, 1.52333333333331, 0,  !- X,Y,Z Vertex 2 {m}
  7.105427357601e-15, 1.4210854715202e-14, 0, !- X,Y,Z Vertex 3 {m}
  7.105427357601e-15, 1.4210854715202e-14, 3.2; !- X,Y,Z Vertex 4 {m}

OS:Surface,
  {d8ad9145-7126-444b-95fc-b69d01a456bd}, !- Handle
  Surface 24,                             !- Name
  RoofCeiling,                            !- Surface Type
  ,                                       !- Construction Name
  {44d551f2-64a1-48be-95c9-c8ecd97ad2b2}, !- Space Name
  Surface,                                !- Outside Boundary Condition
  {cea847a9-da06-489c-bb20-8bfa701a02f3}, !- Outside Boundary Condition Object
  NoSun,                                  !- Sun Exposure
  NoWind,                                 !- Wind Exposure
  ,                                       !- View Factor to Ground
  ,                                       !- Number of Vertices
  7.105427357601e-15, 1.4210854715202e-14, 3.2, !- X,Y,Z Vertex 1 {m}
  40.8431139675894, 1.4210854715202e-14, 3.2, !- X,Y,Z Vertex 2 {m}
  39.319780634256, 1.52333333333331, 3.2, !- X,Y,Z Vertex 3 {m}
  1.52333333333331, 1.52333333333331, 3.2; !- X,Y,Z Vertex 4 {m}

OS:Space,
  {2cc89595-4b24-40d7-8317-2c21fb0c0dfc}, !- Handle
  Story 1 West Right Perimeter Space,     !- Name
  ,                                       !- Space Type Name
  ,                                       !- Default Construction Set Name
  ,                                       !- Default Schedule Set Name
  -0,                                     !- Direction of Relative North {deg}
  75.5928946018454,                       !- X Origin {m}
  37.7964473009227,                       !- Y Origin {m}
  0,                                      !- Z Origin {m}
  {5d481636-6762-47f4-a38f-a8ab4de43607}, !- Building Story Name
  {0dea0cfc-4984-4b89-b5c3-416e75d25938}; !- Thermal Zone Name

OS:Surface,
  {4f8fedb4-b550-4012-9ea6-dafc56d21c2f}, !- Handle
  Surface 25,                             !- Name
  Floor,                                  !- Surface Type
  ,                                       !- Construction Name
  {2cc89595-4b24-40d7-8317-2c21fb0c0dfc}, !- Space Name
  Ground,                                 !- Outside Boundary Condition
  ,                                       !- Outside Boundary Condition Object
  NoSun,                                  !- Sun Exposure
  NoWind,                                 !- Wind Exposure
  ,                                       !- View Factor to Ground
  ,                                       !- Number of Vertices
  -4.2632564145606e-14, -2.1316282072803e-14, 0, !- X,Y,Z Vertex 1 {m}
  -4.2632564145606e-14, 75.5928946018453, 0, !- X,Y,Z Vertex 2 {m}
  1.52333333333335, 74.0695612685123, 0,  !- X,Y,Z Vertex 3 {m}
  1.52333333333335, -1.52333333333332, 0; !- X,Y,Z Vertex 4 {m}

OS:Surface,
  {889c5443-9020-4c95-85d9-4c74e7bcaf21}, !- Handle
  Surface 26,                             !- Name
  Wall,                                   !- Surface Type
  ,                                       !- Construction Name
  {2cc89595-4b24-40d7-8317-2c21fb0c0dfc}, !- Space Name
  Outdoors,                               !- Outside Boundary Condition
  ,                                       !- Outside Boundary Condition Object
  SunExposed,                             !- Sun Exposure
  WindExposed,                            !- Wind Exposure
  ,                                       !- View Factor to Ground
  ,                                       !- Number of Vertices
  -4.2632564145606e-14, 75.5928946018453, 3.2, !- X,Y,Z Vertex 1 {m}
  -4.2632564145606e-14, 75.5928946018453, 0, !- X,Y,Z Vertex 2 {m}
  -4.2632564145606e-14, -2.1316282072803e-14, 0, !- X,Y,Z Vertex 3 {m}
  -4.2632564145606e-14, -2.1316282072803e-14, 3.2; !- X,Y,Z Vertex 4 {m}

OS:Surface,
  {e07916ad-cafc-4d66-8591-9033a33b7ed7}, !- Handle
  Surface 27,                             !- Name
  Wall,                                   !- Surface Type
  ,                                       !- Construction Name
  {2cc89595-4b24-40d7-8317-2c21fb0c0dfc}, !- Space Name
  Surface,                                !- Outside Boundary Condition
  {c99fbea4-2282-4d19-afaa-b7013180a60b}, !- Outside Boundary Condition Object
  NoSun,                                  !- Sun Exposure
  NoWind,                                 !- Wind Exposure
  ,                                       !- View Factor to Ground
  ,                                       !- Number of Vertices
  1.52333333333335, 74.0695612685123, 3.2, !- X,Y,Z Vertex 1 {m}
  1.52333333333335, 74.0695612685123, 0,  !- X,Y,Z Vertex 2 {m}
  -4.2632564145606e-14, 75.5928946018453, 0, !- X,Y,Z Vertex 3 {m}
  -4.2632564145606e-14, 75.5928946018453, 3.2; !- X,Y,Z Vertex 4 {m}

OS:Surface,
  {19de3b05-981a-44a7-9b84-7e85ec92f7bd}, !- Handle