
OS:Version,
  {abaf35d8-80e9-4d8c-905f-47f0d4cbaac1}, !- Handle
  2.8.1;                                  !- Version Identifier

OS:BuildingStory,
  {d5796370-b310-454f-933b-a5366a34b67a}, !- Handle
  Story 1,                                !- Name
  0,                                      !- Nominal Z Coordinate {m}
  3.2,                                    !- Nominal Floor to Floor Height {m}
  ,                                       !- Default Construction Set Name
  ,                                       !- Default Schedule Set Name
  ;                                       !- Group Rendering Name

OS:Space,
  {323fde05-b583-41e1-a591-b68b6924c915}, !- Handle
  Story 1 West Lower Perimeter Space,     !- Name
  ,                                       !- Space Type Name
  ,                                       !- Default Construction Set Name
  ,                                       !- Default Schedule Set Name
  -0,                                     !- Direction of Relative North {deg}
  44.7213595499958,                       !- X Origin {m}
  0,                                      !- Y Origin {m}
  0,                                      !- Z Origin {m}
  {d5796370-b310-454f-933b-a5366a34b67a}, !- Building Story Name
  {6b831c51-deaf-4ff6-8e5d-76fc25a37da8}; !- Thermal Zone Name

OS:Surface,
  {92969de0-0d6b-4461-a14d-1210866ee24d}, !- Handle
  Surface 1,                              !- Name
  Floor,                                  !- Surface Type
  ,                                       !- Construction Name
  {323fde05-b583-41e1-a591-b68b6924c915}, !- Space Name
  Ground,                                 !- Outside Boundary Condition
  ,                                       !- Outside Boundary Condition Object
  NoSun,                                  !- Sun Exposure
  NoWind,                                 !- Wind Exposure
  ,                                       !- View Factor to Ground
  ,                                       !- Number of Vertices
  1.4210854715202e-14, 0, 0,              !- X,Y,Z Vertex 1 {m}
  1.4210854715202e-14, 89.4427190999916, 0, !- X,Y,Z Vertex 2 {m}
  4.57000000000001, 94.0127190999916, 0,  !- X,Y,Z Vertex 3 {m}
  4.57000000000001, 4.57, 0;              !- X,Y,Z Vertex 4 {m}

OS:Surface,
  {284a5b40-fa8a-4c88-a181-c440dcb48667}, !- Handle
  Surface 2,                              !- Name
  Wall,                                   !- Surface Type
  ,                                       !- Construction Name
  {323fde05-b583-41e1-a591-b68b6924c915}, !- Space Name
  Outdoors,                               !- Outside Boundary Condition
  ,                                       !- Outside Boundary Condition Object
  SunExposed,                             !- Sun Exposure
  WindExposed,                            !- Wind Exposure
  ,                                       !- View Factor to Ground
  ,                                       !- Number of Vertices
  1.4210854715202e-14, 89.4427190999916, 3.2, !- X,Y,Z Vertex 1 {m}
  1.4210854715202e-14, 89.4427190999916, 0, !- X,Y,Z Vertex 2 {m}
  1.4210854715202e-14, 0, 0,              !- X,Y,Z Vertex 3 {m}
  1.4210854715202e-14, 0, 3.2;            !- X,Y,Z Vertex 4 {m}

OS:Surface,
  {b15556f1-3bb4-4250-8435-9b759a73bed0}, !- Handle
  Surface 3,                              !- Name
  Wall,                                   !- Surface Type
  ,                                       !- Construction Name
  {323fde05-b583-41e1-a591-b68b6924c915}, !- Space Name
  Surface,                                !- Outside Boundary Condition
  {a06d0428-d381-4e00-aa77-c41f9e76389f}, !- Outside Boundary Condition Object
  NoSun,                                  !- Sun Exposure
  NoWind,                                 !- Wind Exposure
  ,                                       !- View Factor to Ground
  ,                                       !- Number of Vertices
  4.57000000000001, 94.0127190999916, 3.2, !- X,Y,Z Vertex 1 {m}
  4.57000000000001, 94.0127190999916, 0,  !- X,Y,Z Vertex 2 {m}
  1.4210854715202e-14, 89.4427190999916, 0, !- X,Y,Z Vertex 3 {m}
  1.4210854715202e-14, 89.4427190999916, 3.2; !- X,Y,Z Vertex 4 {m}

OS:Surface,
  {45e8cf93-d0f5-4033-a554-40e85ebd174b}, !- Handle
  Surface 4,                              !- Name
  Wall,                                   !- Surface Type
  ,                                       !- Construction Name
  {323fde05-b583-41e1-a591-b68b6924c915}, !- Space Name
  Surface,                                !- Outside Boundary Condition
  {28635f33-6ec9-4398-acab-ff5f806365bf}, !- Outside Boundary Condition Object
  NoSun,                                  !- Sun Exposure
  NoWind,                                 !- Wind Exposure
  ,                                       !- View Factor to Ground
  ,                                       !- Number of Vertices
  4.57000000000001, 4.57, 3.2,            !- X,Y,Z Vertex 1 {m}
  4.57000000000001, 4.57, 0,              !- X,Y,Z Vertex 2 {m}
  4.57000000000001, 94.0127190999916, 0,  !- X,Y,Z Vertex 3 {m}
  4.57000000000001, 94.0127190999916, 3.2; !- X,Y,Z Vertex 4 {m}

OS:Surface,
  {5ed52416-f56e-46ac-a58f-0b7f5433aac9}, !- Handle
  Surface 5,                              !- Name
  Wall,                                   !- Surface Type
  ,                                       !- Construction Name
  {323fde05-b583-41e1-a591-b68b6924c915}, !- Space Name
  Surface,                                !- Outside Boundary Condition
  {3cfc86fd-3468-485b-80d2-94997fce4edb}, !- Outside Boundary Condition Object
  NoSun,                                  !- Sun Exposure
  NoWind,                                 !- Wind Exposure
  ,                                       !- View Factor to Ground
  ,                                       !- Number of Vertices
  1.4210854715202e-14, 0, 3.2,            !- X,Y,Z Vertex 1 {m}
  1.4210854715202e-14, 0, 0,              !- X,Y,Z Vertex 2 {m}
  4.57000000000001, 4.57, 0,              !- X,Y,Z Vertex 3 {m}
  4.57000000000001, 4.57, 3.2;            !- X,Y,Z Vertex 4 {m}

OS:Surface,
  {2195ba49-e6c5-4ca3-ae8c-375b6a2f890b}, !- Handle
  Surface 6,                              !- Name
  RoofCeiling,                            !- Surface Type
  ,                                       !- Construction Name
  {323fde05-b583-41e1-a591-b68b6924c915}, !- Space Name
  Surface,                                !- Outside Boundary Condition
  {f97debe3-8579-4337-bc58-0394751410bd}, !- Outside Boundary Condition Object
  NoSun,                                  !- Sun Exposure
  NoWind,                                 !- Wind Exposure
  ,                                       !- View Factor to Ground
  ,                                       !- Number of Vertices
  4.57000000000001, 4.57, 3.2,            !- X,Y,Z Vertex 1 {m}
  4.57000000000001, 94.0127190999916, 3.2, !- X,Y,Z Vertex 2 {m}
  1.4210854715202e-14, 89.4427190999916, 3.2, !- X,Y,Z Vertex 3 {m}
  1.4210854715202e-14, 0, 3.2;            !- X,Y,Z Vertex 4 {m}

OS:Space,
  {d3301ecc-6173-4478-8425-4e215e8572b5}, !- Handle
  Story 1 South Upper Left Perimeter Space, !- Name
  ,                                       !- Space Type Name
  ,                                       !- Default Construction Set Name
  ,                                       !- Default Schedule Set Name
  -0,                                     !- Direction of Relative North {deg}
  0,                                      !- X Origin {m}
  89.4427190999916,                       !- Y Origin {m}
  0,                                      !- Z Origin {m}
  {d5796370-b310-454f-933b-a5366a34b67a}, !- Building Story Name
  {68b852c4-e2ca-437e-9987-dfdbf61bf179}; !- Thermal Zone Name

OS:Surface,
  {9f75a927-4fc4-4e07-a1ac-cf624de1bf97}, !- Handle
  Surface 7,                              !- Name
  Floor,                                  !- Surface Type
  ,                                       !- Construction Name
  {d3301ecc-6173-4478-8425-4e215e8572b5}, !- Space Name
  Ground,                                 !- Outside Boundary Condition
  ,                                       !- Outside Boundary Condition Object
  NoSun,                                  !- Sun Exposure
  NoWind,                                 !- Wind Exposure
  ,                                       !- View Factor to Ground
  ,                                       !- Number of Vertices
  44.7213595499958, 1.4210854715202e-14, 0, !- X,Y,Z Vertex 1 {m}
  0, 1.4210854715202e-14, 0,              !- X,Y,Z Vertex 2 {m}
  4.57, 4.57000000000001, 0,              !- X,Y,Z Vertex 3 {m}
  49.2913595499958, 4.57000000000001, 0;  !- X,Y,Z Vertex 4 {m}

OS:Surface,
  {c41ba0de-5a6b-49e3-aa4c-1027cf7ec674}, !- Handle
  Surface 8,                              !- Name
  Wall,                                   !- Surface Type
  ,                                       !- Construction Name
  {d3301ecc-6173-4478-8425-4e215e8572b5}, !- Space Name
  Outdoors,                               !- Outside Boundary Condition
  ,                                       !- Outside Boundary Condition Object
  SunExposed,                             !- Sun Exposure
  WindExposed,                            !- Wind Exposure
  ,                                       !- View Factor to Ground
  ,                                       !- Number of Vertices
  0, 1.4210854715202e-14, 3.2,            !- X,Y,Z Vertex 1 {m}
  0, 1.4210854715202e-14, 0,              !- X,Y,Z Vertex 2 {m}
  44.7213595499958, 1.4210854715202e-14, 0, !- X,Y,Z Vertex 3 {m}
  44.7213595499958, 1.4210854715202e-14, 3.2; !- X,Y,Z Vertex 4 {m}

OS:Surface,
  {45118975-0986-45ce-881a-48623af43a0b}, !- Handle
  Surface 9,                              !- Name
  Wall,                                   !- Surface Type
  ,                                       !- Construction Name
  {d3301ecc-6173-4478-8425-4e215e8572b5}, !- Space Name
  Surface,                                !- Outside Boundary Condition
  {0cc4c697-7efc-44c8-94a2-1db62590dac5}, !- Outside Boundary Condition Object
  NoSun,                                  !- Sun Exposure
  NoWind,                                 !- Wind Exposure
  ,                                       !- View Factor to Ground
  ,                                       !- Number of Vertices
  4.57, 4.57000000000001, 3.2,            !- X,Y,Z Vertex 1 {m}
  4.57, 4.57000000000001, 0,              !- X,Y,Z Vertex 2 {m}
  0, 1.4210854715202e-14, 0,              !- X,Y,Z Vertex 3 {m}
  0, 1.4210854715202e-14, 3.2;            !- X,Y,Z Vertex 4 {m}

OS:Surface,
  {a0dafd37-2577-432a-bbc7-9291eec54feb}, !- Handle
  Surface 10,                             !- Name
  Wall,                                   !- Surface Type
  ,                                       !- Construction Name
  {d3301ecc-6173-4478-8425-4e215e8572b5}, !- Space Name
  Outdoors,                               !- Outside Boundary Condition
  ,                                       !- Outside Boundary Condition Object
  SunExposed,                             !- Sun Exposure
  WindExposed,                            !- Wind Exposure
  ,                                       !- View Factor to Ground
  ,                                       !- Number of Vertices
  49.2913595499958, 4.57000000000001, 3.2, !- X,Y,Z Vertex 1 {m}
  49.2913595499958, 4.57000000000001, 0,  !- X,Y,Z Vertex 2 {m}
  4.57, 4.57000000000001, 0,              !- X,Y,Z Vertex 3 {m}
  4.57, 4.57000000000001, 3.2;            !- X,Y,Z Vertex 4 {m}

OS:Surface,
  {a06d0428-d381-4e00-aa77-c41f9e76389f}, !- Handle
  Surface 11,                             !- Name
  Wall,                                   !- Surface Type
  ,                                       !- Construction Name
  {d3301ecc-6173-4478-8425-4e215e8572b5}, !- Space Name
  Surface,                                !- Outside Boundary Condition
  {b15556f1-3bb4-4250-8435-9b759a73bed0}, !- Outside Boundary Condition Object
  NoSun,                                  !- Sun Exposure
  NoWind,                                 !- Wind Exposure
  ,                                       !- View Factor to Ground
  ,                                       !- Number of Vertices
  44.7213595499958, 1.4210854715202e-14, 3.2, !- X,Y,Z Vertex 1 {m}
  44.7213595499958, 1.4210854715202e-14, 0, !- X,Y,Z Vertex 2 {m}
  49.2913595499958, 4.57000000000001, 0,  !- X,Y,Z Vertex 3 {m}
  49.2913595499958, 4.57000000000001, 3.2; !- X,Y,Z Vertex 4 {m}

OS:Surface,
  {1a807639-b1ba-402e-b925-4a48c88ff769}, !- Handle
  Surface 12,                             !- Name
  RoofCeiling,                            !- Surface Type
  ,                                       !- Construction Name
  {d3301ecc-6173-4478-8425-4e215e8572b5}, !- Space Name
  Surface,                                !- Outside Boundary Condition
  {19f8482f-1d1b-4ea4-bd0e-76efe0da6721}, !- Outside Boundary Condition Object
  NoSun,                                  !- Sun Exposure
  NoWind,                                 !- Wind Exposure
  ,                                       !- View Factor to Ground
  ,                                       !- Number of Vertices
  49.2913595499958, 4.57000000000001, 3.2, !- X,Y,Z Vertex 1 {m}
  4.57, 4.57000000000001, 3.2,            !- X,Y,Z Vertex 2 {m}
  0, 1.4210854715202e-14, 3.2,            !- X,Y,Z Vertex 3 {m}
  44.7213595499958, 1.4210854715202e-14, 3.2; !- X,Y,Z Vertex 4 {m}

OS:Space,
  {634c78d3-32d4-4f43-8d49-cb36108a5ce3}, !- Handle
  Story 1 West Upper Perimeter Space,     !- Name
  ,                                       !- Space Type Name
  ,                                       !- Default Construction Set Name
  ,                                       !- Default Schedule Set Name
  -0,                                     !- Direction of Relative North {deg}
  0,                                      !- X Origin {m}
  89.4427190999916,                       !- Y Origin {m}
  0,                                      !- Z Origin {m}
  {d5796370-b310-454f-933b-a5366a34b67a}, !- Building Story Name
  {2954d6ae-69a4-4d1d-8541-1032ebe1455e}; !- Thermal Zone Name

OS:Surface,
  {0e004721-b43c-40b9-ae12-a22664998718}, !- Handle
  Surface 13,                             !- Name
  Floor,                                  !- Surface Type
  ,                                       !- Construction Name
  {634c78d3-32d4-4f43-8d49-cb36108a5ce3}, !- Space Name
  Ground,                                 !- Outside Boundary Condition
  ,                                       !- Outside Boundary Condition Object
  NoSun,                                  !- Sun Exposure
  NoWind,                                 !- Wind Exposure
  ,                                       !- View Factor to Ground
  ,                                       !- Number of Vertices
  0, 1.4210854715202e-14, 0,              !- X,Y,Z Vertex 1 {m}
  0, 44.7213595499954, 0,                 !- X,Y,Z Vertex 2 {m}
  4.57, 40.1513595499954, 0,              !- X,Y,Z Vertex 3 {m}
  4.57, 4.57000000000001, 0;              !- X,Y,Z Vertex 4 {m}

OS:Surface,
  {4b1a2033-bc4e-4884-92a4-129b72cd98e0}, !- Handle
  Surface 14,                             !- Name
  Wall,                                   !- Surface Type
  ,                                       !- Construction Name
  {634c78d3-32d4-4f43-8d49-cb36108a5ce3}, !- Space Name
  Outdoors,                               !- Outside Boundary Condition
  ,                                       !- Outside Boundary Condition Object
  SunExposed,                             !- Sun Exposure
  WindExposed,                            !- Wind Exposure
  ,                                       !- View Factor to Ground
  ,                                       !- Number of Vertices
  0, 44.7213595499954, 3.2,               !- X,Y,Z Vertex 1 {m}
  0, 44.7213595499954, 0,                 !- X,Y,Z Vertex 2 {m}
  0, 1.4210854715202e-14, 0,              !- X,Y,Z Vertex 3 {m}
  0, 1.4210854715202e-14, 3.2;            !- X,Y,Z Vertex 4 {m}

OS:Surface,
  {db1b16d0-5a7d-432e-a6cf-295d42361fb1}, !- Handle
  Surface 15,                             !- Name
  Wall,                                   !- Surface Type
  ,                                       !- Construction Name
  {634c78d3-32d4-4f43-8d49-cb36108a5ce3}, !- Space Name
  Surface,                                !- Outside Boundary Condition
  {3f8f3bb6-6e50-4953-85f9-0289df2cf735}, !- Outside Boundary Condition Object
  NoSun,                                  !- Sun Exposure
  NoWind,                                 !- Wind Exposure
  ,                                       !- View Factor to Ground
  ,                                       !- Number of Vertices
  4.57, 40.1513595499954, 3.2,            !- X,Y,Z Vertex 1 {m}
  4.57, 40.1513595499954, 0,              !- X,Y,Z Vertex 2 {m}
  0, 44.7213595499954, 0,                 !- X,Y,Z Vertex 3 {m}
  0, 44.7213595499954, 3.2;               !- X,Y,Z Vertex 4 {m}

OS:Surface,
  {8e4c5d98-60ac-4a8f-8fe7-0057ca7955bc}, !- Handle
  Surface 16,                             !- Name
  Wall,                                   !- Surface Type
  ,                                       !- Construction Name
  {634c78d3-32d4-4f43-8d49-cb36108a5ce3}, !- Space Name
  Surface,                                !- Outside Boundary Condition
  {fb8a0577-c0b7-4fed-aacc-2df7e8b8e4c0}, !- Outside Boundary Condition Object
  NoSun,                                  !- Sun Exposure
  NoWind,                                 !- Wind Exposure
  ,                                       !- View Factor to Ground
  ,                                       !- Number of Vertices
  4.57, 4.57000000000001, 3.2,            !- X,Y,Z Vertex 1 {m}
  4.57, 4.57000000000001, 0,              !- X,Y,Z Vertex 2 {m}
  4.57, 40.1513595499954, 0,              !- X,Y,Z Vertex 3 {m}
  4.57, 40.1513595499954, 3.2;            !- X,Y,Z Vertex 4 {m}

OS:Surface,
  {0cc4c697-7efc-44c8-94a2-1db62590dac5}, !- Handle
  Surface 17,                             !- Name
  Wall,                                   !- Surface Type
  ,                                       !- Construction Name
  {634c78d3-32d4-4f43-8d49-cb36108a5ce3}, !- Space Name
  Surface,                                !- Outside Boundary Condition
  {45118975-0986-45ce-881a-48623af43a0b}, !- Outside Boundary Condition Object
  NoSun,                                  !- Sun Exposure
  NoWind,                                 !- Wind Exposure
  ,                                       !- View Factor to Ground
  ,                                       !- Number of Vertices
  0, 1.4210854715202e-14, 3.2,            !- X,Y,Z Vertex 1 {m}
  0, 1.4210854715202e-14, 0,              !- X,Y,Z Vertex 2 {m}
  4.57, 4.57000000000001, 0,              !- X,Y,Z Vertex 3 {m}
  4.57, 4.57000000000001, 3.2;            !- X,Y,Z Vertex 4 {m}

OS:Surface,
  {8d97f93d-1e85-4cc7-9135-ff7ea5bd8261}, !- Handle
  Surface 18,                             !- Name
  RoofCeiling,                            !- Surface Type
  ,                                       !- Construction Name
  {634c78d3-32d4-4f43-8d49-cb36108a5ce3}, !- Space Name
  Surface,                                !- Outside Boundary Condition
  {48ed61b9-f399-4236-9993-41c9bec5f77b}, !- Outside Boundary Condition Object
  NoSun,                                  !- Sun Exposure
  NoWind,                                 !- Wind Exposure
  ,                                       !- View Factor to Ground
  ,                                       !- Number of Vertices
  4.57, 4.57000000000001, 3.2,            !- X,Y,Z Vertex 1 {m}
  4.57, 40.1513595499954, 3.2,            !- X,Y,Z Vertex 2 {m}
  0, 44.7213595499954, 3.2,               !- X,Y,Z Vertex 3 {m}
  0, 1.4210854715202e-14, 3.2;            !- X,Y,Z Vertex 4 {m}

OS:Space,
  {c96e85d7-062d-498a-b52c-92c7f4dfeb86}, !- Handle
  Story 1 North Perimeter Space,          !- Name
  ,                                       !- Space Type Name
  ,                                       !- Default Construction Set Name
  ,                                       !- Default Schedule Set Name
  -0,                                     !- Direction of Relative North {deg}
  4.57,                                   !- X Origin {m}
  129.594078649987,                       !- Y Origin {m}
  0,                                      !- Z Origin {m}
  {d5796370-b310-454f-933b-a5366a34b67a}, !- Building Story Name
  {0d4f36b5-2523-4237-97b9-43609861725c}; !- Thermal Zone Name

OS:Surface,
  {2731e5c1-039f-4e21-98f1-26fe38a95772}, !- Handle
  Surface 19,                             !- Name
  Floor,                                  !- Surface Type
  ,                                       !- Construction Name
  {c96e85d7-062d-498a-b52c-92c7f4dfeb86}, !- Space Name
  Ground,                                 !- Outside Boundary Condition
  ,                                       !- Outside Boundary Condition Object
  NoSun,                                  !- Sun Exposure
  NoWind,                                 !- Wind Exposure
  ,                                       !- View Factor to Ground
  ,                                       !- Number of Vertices
  -4.57, 4.56999999999962, 0,             !- X,Y,Z Vertex 1 {m}
  129.594078649987, 4.56999999999962, 0,  !- X,Y,Z Vertex 2 {m}
  125.024078649987, -3.69482222595252e-13, 0, !- X,Y,Z Vertex 3 {m}
  0, -3.69482222595252e-13, 0;            !- X,Y,Z Vertex 4 {m}

OS:Surface,
  {eb305a2a-e3fd-49a4-bc1a-02ffea8e5d28}, !- Handle
  Surface 20,                             !- Name
  Wall,                                   !- Surface Type
  ,                                       !- Construction Name
  {c96e85d7-062d-498a-b52c-92c7f4dfeb86}, !- Space Name
  Outdoors,                               !- Outside Boundary Condition
  ,                                       !- Outside Boundary Condition Object
  SunExposed,                             !- Sun Exposure
  WindExposed,                            !- Wind Exposure
  ,                                       !- View Factor to Ground
  ,                                       !- Number of Vertices
  129.594078649987, 4.56999999999962, 3.2, !- X,Y,Z Vertex 1 {m}
  129.594078649987, 4.56999999999962, 0,  !- X,Y,Z Vertex 2 {m}
  -4.57, 4.56999999999962, 0,             !- X,Y,Z Vertex 3 {m}
  -4.57, 4.56999999999962, 3.2;           !- X,Y,Z Vertex 4 {m}

OS:Surface,
  {35fe6cd6-05cc-4f3b-8236-b595a07b2818}, !- Handle
  Surface 21,                             !- Name
  Wall,                                   !- Surface Type
  ,                                       !- Construction Name
  {c96e85d7-062d-498a-b52c-92c7f4dfeb86}, !- Space Name
  Surface,                                !- Outside Boundary Condition
  {2464192b-4b15-42ad-811a-2d0cc783932c}, !- Outside Boundary Condition Object
  NoSun,                                  !- Sun Exposure
  NoWind,                                 !- Wind Exposure
  ,                                       !- View Factor to Ground
  ,                                       !- Number of Vertices
  125.024078649987, -3.69482222595252e-13, 3.2, !- X,Y,Z Vertex 1 {m}
  125.024078649987, -3.69482222595252e-13, 0, !- X,Y,Z Vertex 2 {m}
  129.594078649987, 4.56999999999962, 0,  !- X,Y,Z Vertex 3 {m}
  129.594078649987, 4.56999999999962, 3.2; !- X,Y,Z Vertex 4 {m}

OS:Surface,
  {db603157-01e4-44d9-aa22-dfee6d154589}, !- Handle
  Surface 22,                             !- Name
  Wall,                                   !- Surface Type
  ,                                       !- Construction Name
  {c96e85d7-062d-498a-b52c-92c7f4dfeb86}, !- Space Name
  Surface,                                !- Outside Boundary Condition
  {f0530ee2-d625-4494-baed-f5b89a91d76a}, !- Outside Boundary Condition Object
  NoSun,                                  !- Sun Exposure
  NoWind,                                 !- Wind Exposure
  ,                                       !- View Factor to Ground
  ,                                       !- Number of Vertices
  0, -3.69482222595252e-13, 3.2,          !- X,Y,Z Vertex 1 {m}
  0, -3.69482222595252e-13, 0,            !- X,Y,Z Vertex 2 {m}
  125.024078649987, -3.69482222595252e-13, 0, !- X,Y,Z Vertex 3 {m}
  125.024078649987, -3.69482222595252e-13, 3.2; !- X,Y,Z Vertex 4 {m}

OS:Surface,
  {3f8f3bb6-6e50-4953-85f9-0289df2cf735}, !- Handle
  Surface 23,                             !- Name
  Wall,                                   !- Surface Type
  ,                                       !- Construction Name
  {c96e85d7-062d-498a-b52c-92c7f4dfeb86}, !- Space Name
  Surface,                                !- Outside Boundary Condition
  {db1b16d0-5a7d-432e-a6cf-295d42361fb1}, !- Outside Boundary Condition Object
  NoSun,                                  !- Sun Exposure
  NoWind,                                 !- Wind Exposure
  ,                                       !- View Factor to Ground
  ,                                       !- Number of Vertices
  -4.57, 4.56999999999962, 3.2,           !- X,Y,Z Vertex 1 {m}
  -4.57, 4.56999999999962, 0,             !- X,Y,Z Vertex 2 {m}
  0, -3.69482222595252e-13, 0,            !- X,Y,Z Vertex 3 {m}
  0, -3.69482222595252e-13, 3.2;          !- X,Y,Z Vertex 4 {m}

OS:Surface,
  {8e0b37c5-0296-451a-838d-3987649ea409}, !- Handle
  Surface 24,                             !- Name
  RoofCeiling,                            !- Surface Type
  ,                                       !- Construction Name
  {c96e85d7-062d-498a-b52c-92c7f4dfeb86}, !- Space Name
  Surface,                                !- Outside Boundary Condition
  {53ddeb2b-e807-471e-b0b7-b9fac84730b4}, !- Outside Boundary Condition Object
  NoSun,                                  !- Sun Exposure
  NoWind,                                 !- Wind Exposure
  ,                                       !- View Factor to Ground
  ,                                       !- Number of Vertices
  0, -3.69482222595252e-13, 3.2,          !- X,Y,Z Vertex 1 {m}
  125.024078649987, -3.69482222595252e-13, 3.2, !- X,Y,Z Vertex 2 {m}
  129.594078649987, 4.56999999999962, 3.2, !- X,Y,Z Vertex 3 {m}
  -4.57, 4.56999999999962, 3.2;           !- X,Y,Z Vertex 4 {m}

OS:Space,
  {dcfd89eb-b291-47b4-8d04-47b88a1b31c3}, !- Handle
  Story 1 East Upper Perimeter Space,     !- Name
  ,                                       !- Space Type Name
  ,                                       !- Default Construction Set Name
  ,                                       !- Default Schedule Set Name
  -0,                                     !- Direction of Relative North {deg}
  129.594078649987,                       !- X Origin {m}
  94.0127190999916,                       !- Y Origin {m}
  0,                                      !- Z Origin {m}
  {d5796370-b310-454f-933b-a5366a34b67a}, !- Building Story Name
  {584ba6e4-ab48-48ae-ae8a-595a1774c28a}; !- Thermal Zone Name

OS:Surface,
  {b9d5eddf-0e34-4b63-838a-f56aa25be863}, !- Handle
  Surface 25,                             !- Name
  Floor,                                  !- Surface Type
  ,                                       !- Construction Name
  {dcfd89eb-b291-47b4-8d04-47b88a1b31c3}, !- Space Name
  Ground,                                 !- Outside Boundary Condition
  ,                                       !- Outside Boundary Condition Object
  NoSun,                                  !- Sun Exposure
  NoWind,                                 !- Wind Exposure
  ,                                       !- View Factor to Ground
  ,                                       !- Number of Vertices
  4.56999999999962, 40.1513595499954, 0,  !- X,Y,Z Vertex 1 {m}
  4.56999999999962, -4.56999999999998, 0, !- X,Y,Z Vertex 2 {m}
  -3.69482222595252e-13, 1.4210854715202e-14, 0, !- X,Y,Z Vertex 3 {m}
  -3.69482222595252e-13, 35.5813595499954, 0; !- X,Y,Z Vertex 4 {m}

OS:Surface,
  {66f4266c-f733-4c06-92d7-2446a77b8eb9}, !- Handle
  Surface 26,                             !- Name
  Wall,                                   !- Surface Type
  ,                                       !- Construction Name
  {dcfd89eb-b291-47b4-8d04-47b88a1b31c3}, !- Space Name
  Outdoors,                               !- Outside Boundary Condition
  ,                                       !- Outside Boundary Condition Object
  SunExposed,                             !- Sun Exposure
  WindExposed,                            !- Wind Exposure
  ,                                       !- View Factor to Ground
  ,                                       !- Number of Vertices
  4.56999999999962, -4.56999999999998, 3.2, !- X,Y,Z Vertex 1 {m}
  4.56999999999962, -4.56999999999998, 0, !- X,Y,Z Vertex 2 {m}
  4.56999999999962, 40.1513595499954, 0,  !- X,Y,Z Vertex 3 {m}
  4.56999999999962, 40.1513595499954, 3.2; !- X,Y,Z Vertex 4 {m}

OS:Surface,
  {abae4d43-bab6-4112-a565-7ec95141af77}, !- Handle
  Surface 27,                             !- Name
  Wall,                                   !- Surface Type
  ,                                       !- Construction Name
  {dcfd89eb-b291-47b4-8d04-47b88a1b31c3}, !- Space Name
  Surface,                                !- Outside Boundary Condition
  {fbc2f629-5ba6-4661-8cea-b27cb7655f91}, !- Outside Boundary Condition Object
  NoSun,                                  !- Sun Exposure
  NoWind,                                 !- Wind Exposure
  ,                                       !- View Factor to Ground
  ,                                       !- Number of Vertices
  -3.69482222595252e-13, 1.4210854715202e-14, 3.2, !- X,Y,Z Vertex 1 {m}
  -3.69482222595252e-13, 1.4210854715202e-14, 0, !- X,Y,Z Vertex 2 {m}
  4.56999999999962, -4.56999999999998, 0, !- X,Y,Z Vertex 3 {m}
  4.56999999999962, -4.56999999999998, 3.2; !- X,Y,Z Vertex 4 {m}

OS:Surface,
  {97c0743f-2ec0-4767-afeb-7f2d83398411}, !- Handle
  Surface 28,                             !- Name
  Wall,                                   !- Surface Type