!-Generator IDFEditor 1.50
!-Option OriginalOrderTop UseSpecialFormat

!-NOTE: All comments with '!-' are ignored by the IDFEditor and are generated automatically.
!-      Use '!' comments if they need to be retained when using the IDFEditor.

Version,9.1;
Timestep,6;

LifeCycleCost:Parameters,
    Life Cycle Cost Parameters,  !- Name
    EndOfYear,               !- Discounting Convention
    ConstantDollar,          !- Inflation Approach
    0.03,                    !- Real Discount Rate
    ,                        !- Nominal Discount Rate
    ,                        !- Inflation
    ,                        !- Base Date Month
    2011,                    !- Base Date Year
    ,                        !- Service Date Month
    2011,                    !- Service Date Year
    25,                      !- Length of Study Period in Years
    ,                        !- Tax rate
    None;                    !- Depreciation Method

LifeCycleCost:UsePriceEscalation,
    U.S. Avg  Commercial-Electricity,  !- LCC Price Escalation Name
    Electricity,             !- Resource
    2011,                    !- Escalation Start Year
    January,                 !- Escalation Start Month
    0.9838,                  !- Year 1 Escalation
    0.9730,                  !- Year 2 Escalation
    0.9632,                  !- Year 3 Escalation
    0.9611,                  !- Year 4 Escalation
    0.9571,                  !- Year 5 Escalation
    0.9553,                  !- Year 6 Escalation
    0.9539,                  !- Year 7 Escalation
    0.9521,                  !- Year 8 Escalation
    0.9546,                  !- Year 9 Escalation
    0.9550,                  !- N11
    0.9553,                  !- N12
    0.9564,                  !- N13
    0.9575,                  !- N14
    0.9596,                  !- N15
    0.9618,                  !- N16
    0.9614,                  !- N17
    0.9618,                  !- N18
    0.9618,                  !- N19
    0.9593,                  !- N20
    0.9589,                  !- N21
    0.9607,                  !- N22
    0.9625,                  !- N23
    0.9650,                  !- N24
    0.9708,                  !- N25
    0.9751,                  !- N26
    0.9762,                  !- N27
    0.9766,                  !- N28
    0.9766,                  !- N29
    0.9769,                  !- N30
    0.9773;                  !- N31

LifeCycleCost:UsePriceEscalation,
    U.S. Avg  Commercial-Distillate Oil,  !- LCC Price Escalation Name
    FuelOil#1,               !- Resource
    2011,                    !- Escalation Start Year
    January,                 !- Escalation Start Month
    0.9714,                  !- Year 1 Escalation
    0.9730,                  !- Year 2 Escalation
    0.9942,                  !- Year 3 Escalation
    1.0164,                  !- Year 4 Escalation
    1.0541,                  !- Year 5 Escalation
    1.0928,                  !- Year 6 Escalation
    1.1267,                  !- Year 7 Escalation
    1.1580,                  !- Year 8 Escalation
    1.1792,                  !- Year 9 Escalation
    1.1967,                  !- N11
    1.2200,                  !- N12
    1.2333,                  !- N13
    1.2566,                  !- N14
    1.2709,                  !- N15
    1.2826,                  !- N16
    1.2985,                  !- N17
    1.3102,                  !- N18
    1.3250,                  !- N19
    1.3261,                  !- N20
    1.3282,                  !- N21
    1.3324,                  !- N22
    1.3356,                  !- N23
    1.3431,                  !- N24
    1.3510,                  !- N25
    1.3568,                  !- N26
    1.3606,                  !- N27
    1.3637,                  !- N28
    1.3674,                  !- N29
    1.3706,                  !- N30
    1.3743;                  !- N31

LifeCycleCost:UsePriceEscalation,
    U.S. Avg  Commercial-Residual Oil,  !- LCC Price Escalation Name
    FuelOil#2,               !- Resource
    2011,                    !- Escalation Start Year
    January,                 !- Escalation Start Month
    0.8469,                  !- Year 1 Escalation
    0.8257,                  !- Year 2 Escalation
    0.8681,                  !- Year 3 Escalation
    0.8988,                  !- Year 4 Escalation
    0.9289,                  !- Year 5 Escalation
    0.9604,                  !- Year 6 Escalation
    0.9897,                  !- Year 7 Escalation
    1.0075,                  !- Year 8 Escalation
    1.0314,                  !- Year 9 Escalation
    1.0554,                  !- N11
    1.0861,                  !- N12
    1.1278,                  !- N13
    1.1497,                  !- N14
    1.1620,                  !- N15
    1.1743,                  !- N16
    1.1852,                  !- N17
    1.1948,                  !- N18
    1.2037,                  !- N19
    1.2071,                  !- N20
    1.2119,                  !- N21
    1.2139,                  !- N22
    1.2194,                  !- N23
    1.2276,                  !- N24
    1.2365,                  !- N25
    1.2420,                  !- N26
    1.2461,                  !- N27
    1.2509,                  !- N28
    1.2550,                  !- N29
    1.2591,                  !- N30
    1.2638;                  !- N31

LifeCycleCost:UsePriceEscalation,
    U.S. Avg  Commercial-Natural gas,  !- LCC Price Escalation Name
    NaturalGas,              !- Resource
    2011,                    !- Escalation Start Year
    January,                 !- Escalation Start Month
    0.9823,                  !- Year 1 Escalation
    0.9557,                  !- Year 2 Escalation
    0.9279,                  !- Year 3 Escalation
    0.9257,                  !- Year 4 Escalation
    0.9346,                  !- Year 5 Escalation
    0.9412,                  !- Year 6 Escalation
    0.9512,                  !- Year 7 Escalation
    0.9645,                  !- Year 8 Escalation
    0.9856,                  !- Year 9 Escalation
    1.0067,                  !- N11
    1.0222,                  !- N12
    1.0410,                  !- N13
    1.0610,                  !- N14
    1.0787,                  !- N15
    1.0942,                  !- N16
    1.1098,                  !- N17
    1.1220,                  !- N18
    1.1308,                  !- N19
    1.1386,                  !- N20
    1.1486,                  !- N21
    1.1619,                  !- N22
    1.1763,                  !- N23
    1.1918,                  !- N24
    1.2118,                  !- N25
    1.2284,                  !- N26
    1.2439,                  !- N27
    1.2605,                  !- N28
    1.2772,                  !- N29
    1.2938,                  !- N30
    1.3115;                  !- N31

LifeCycleCost:UsePriceEscalation,
    U.S. Avg  Commercial-Coal,  !- LCC Price Escalation Name
    Coal,                    !- Resource
    2011,                    !- Escalation Start Year
    January,                 !- Escalation Start Month
    0.9970,                  !- Year 1 Escalation
    1.0089,                  !- Year 2 Escalation
    1.0089,                  !- Year 3 Escalation
    0.9941,                  !- Year 4 Escalation
    0.9941,                  !- Year 5 Escalation
    1.0000,                  !- Year 6 Escalation
    1.0030,                  !- Year 7 Escalation
    1.0059,                  !- Year 8 Escalation
    1.0089,                  !- Year 9 Escalation
    1.0119,                  !- N11
    1.0148,                  !- N12
    1.0178,                  !- N13
    1.0208,                  !- N14
    1.0267,                  !- N15
    1.0297,                  !- N16
    1.0356,                  !- N17
    1.0415,                  !- N18
    1.0534,                  !- N19
    1.0564,                  !- N20
    1.0593,                  !- N21
    1.0653,                  !- N22
    1.0712,                  !- N23
    1.0742,                  !- N24
    1.0801,                  !- N25
    1.0831,                  !- N26
    1.0831,                  !- N27
    1.0861,                  !- N28
    1.0890,                  !- N29
    1.0920,                  !- N30
    1.0950;                  !- N31

Building,
    T shape_Warehouse_NECB2017,  !- Name
    0,                       !- North Axis {deg}
    ,                        !- Terrain
    ,                        !- Loads Convergence Tolerance Value
    ,                        !- Temperature Convergence Tolerance Value {deltaC}
    ,                        !- Solar Distribution
    ,                        !- Maximum Number of Warmup Days
    ;                        !- Minimum Number of Warmup Days

Zone,
    Story 1 East Lower Perimeter Space ZN,  !- Name
    -0,                      !- Direction of Relative North {deg}
    84.8727190999916, 4.57, 0;          !- X,Y,Z  {m}

BuildingSurface:Detailed,
    Surface 37,              !- Name
    Floor,                   !- Surface Type
    BTAP-Grnd-Floor-Mass:U-0.757,  !- Construction Name
    Story 1 East Lower Perimeter Space ZN,  !- Zone Name
    Ground,                  !- Outside Boundary Condition
    ,                        !- Outside Boundary Condition Object
    NoSun,                   !- Sun Exposure
    NoWind,                  !- Wind Exposure
    ,                        !- View Factor to Ground
    ,                        !- Number of Vertices
    4.57000000000004, 84.8727190999916, 0,
                                        !- X,Y,Z  1 {m}
    4.57000000000004, -4.57, 0,         !- X,Y,Z  2 {m}
    2.8421709430404e-14, 0, 0,          !- X,Y,Z  3 {m}
    2.8421709430404e-14, 89.4427190999916, 0;
                                        !- X,Y,Z  4 {m}

BuildingSurface:Detailed,
    Surface 38,              !- Name
    Wall,                    !- Surface Type
    BTAP-Ext-Wall-Mass:U-0.247,  !- Construction Name
    Story 1 East Lower Perimeter Space ZN,  !- Zone Name
    Outdoors,                !- Outside Boundary Condition
    ,                        !- Outside Boundary Condition Object
    SunExposed,              !- Sun Exposure
    WindExposed,             !- Wind Exposure
    ,                        !- View Factor to Ground
    ,                        !- Number of Vertices
    4.57000000000004, -4.57, 3.2,       !- X,Y,Z  1 {m}
    4.57000000000004, -4.57, 0,         !- X,Y,Z  2 {m}
    4.57000000000004, 84.8727190999916, 0,
                                        !- X,Y,Z  3 {m}
    4.57000000000004, 84.8727190999916, 3.2;
                                        !- X,Y,Z  4 {m}

FenestrationSurface:Detailed,
    Surface 38_FixedWindow,  !- Name
    Window,                  !- Surface Type
    BTAP-Ext-FixedWindow:U=0.190 SHGC=0.600,  !- Construction Name
    Surface 38,              !- Building Surface Name
    ,                        !- Outside Boundary Condition Object
    ,                        !- View Factor to Ground
    ,                        !- Frame and Divider Name
    ,                        !- Multiplier
    ,                        !- Number of Vertices
    4.57000000000004, -4.5446, 1.93706739276436,
                                        !- X,Y,Z  1 {m}
    4.57000000000004, -4.5446, 0.762,   !- X,Y,Z  2 {m}
    4.57000000000004, 84.8473190999916, 0.762,
                                        !- X,Y,Z  3 {m}
    4.57000000000004, 84.8473190999916, 1.93706739276436;
                                        !- X,Y,Z  4 {m}

BuildingSurface:Detailed,
    Surface 39,              !- Name
    Wall,                    !- Surface Type
    BTAP-Int-Wall,           !- Construction Name
    Story 1 East Lower Perimeter Space ZN,  !- Zone Name
    Surface,                 !- Outside Boundary Condition
    Surface 47,              !- Outside Boundary Condition Object
    NoSun,                   !- Sun Exposure
    NoWind,                  !- Wind Exposure
    ,                        !- View Factor to Ground
    ,                        !- Number of Vertices
    2.8421709430404e-14, 0, 3.2,        !- X,Y,Z  1 {m}
    2.8421709430404e-14, 0, 0,          !- X,Y,Z  2 {m}
    4.57000000000004, -4.57, 0,         !- X,Y,Z  3 {m}
    4.57000000000004, -4.57, 3.2;       !- X,Y,Z  4 {m}

BuildingSurface:Detailed,
    Surface 40,              !- Name
    Wall,                    !- Surface Type
    BTAP-Int-Wall,           !- Construction Name
    Story 1 East Lower Perimeter Space ZN,  !- Zone Name
    Surface,                 !- Outside Boundary Condition
    Surface 60,              !- Outside Boundary Condition Object
    NoSun,                   !- Sun Exposure
    NoWind,                  !- Wind Exposure
    ,                        !- View Factor to Ground
    ,                        !- Number of Vertices
    2.8421709430404e-14, 89.4427190999916, 3.2,
                                        !- X,Y,Z  1 {m}
    2.8421709430404e-14, 89.4427190999916, 0,
                                        !- X,Y,Z  2 {m}
    2.8421709430404e-14, 0, 0,          !- X,Y,Z  3 {m}
    2.8421709430404e-14, 0, 3.2;        !- X,Y,Z  4 {m}

BuildingSurface:Detailed,
    Surface 41,              !- Name
    Wall,                    !- Surface Type
    BTAP-Int-Wall,           !- Construction Name
    Story 1 East Lower Perimeter Space ZN,  !- Zone Name
    Surface,                 !- Outside Boundary Condition
    Surface 33,              !- Outside Boundary Condition Object
    NoSun,                   !- Sun Exposure
    NoWind,                  !- Wind Exposure
    ,                        !- View Factor to Ground
    ,                        !- Number of Vertices
    4.57000000000004, 84.8727190999916, 3.2,
                                        !- X,Y,Z  1 {m}
    4.57000000000004, 84.8727190999916, 0,
                                        !- X,Y,Z  2 {m}
    2.8421709430404e-14, 89.4427190999916, 0,
                                        !- X,Y,Z  3 {m}
    2.8421709430404e-14, 89.4427190999916, 3.2;
                                        !- X,Y,Z  4 {m}

BuildingSurface:Detailed,
    Surface 42,              !- Name
    Ceiling,                 !- Surface Type
    BTAP-Int-Ceiling,        !- Construction Name
    Story 1 East Lower Perimeter Space ZN,  !- Zone Name
    Surface,                 !- Outside Boundary Condition
    Surface 99,              !- Outside Boundary Condition Object
    NoSun,                   !- Sun Exposure
    NoWind,                  !- Wind Exposure
    ,                        !- View Factor to Ground
    ,                        !- Number of Vertices
    2.8421709430404e-14, 89.4427190999916, 3.2,
                                        !- X,Y,Z  1 {m}
    2.8421709430404e-14, 0, 3.2,        !- X,Y,Z  2 {m}
    4.57000000000004, -4.57, 3.2,       !- X,Y,Z  3 {m}
    4.57000000000004, 84.8727190999916, 3.2;
                                        !- X,Y,Z  4 {m}

ZoneInfiltration:DesignFlowRate,
    Story 1 East Lower Perimeter Space Infiltration,  !- Name
    Story 1 East Lower Perimeter Space ZN,  !- Zone or ZoneList Name
    Always On Discrete,      !- Schedule Name
    Flow/ExteriorArea,       !- Design Flow Rate Calculation Method
    ,                        !- Design Flow Rate {m3/s}
    ,                        !- Flow per Zone Floor Area {m3/s-m2}
    0.00025,                 !- Flow per Exterior Surface Area {m3/s-m2}
    ,                        !- Air Changes per Hour {1/hr}
    0,                       !- Constant Term Coefficient
    0,                       !- Temperature Term Coefficient
    0.224,                   !- Velocity Term Coefficient
    0;                       !- Velocity Squared Term Coefficient

ZoneControl:Thermostat,
    Story 1 East Lower Perimeter Space ZN Thermostat,  !- Name
    Story 1 East Lower Perimeter Space ZN,  !- Zone or ZoneList Name
    Story 1 East Lower Perimeter Space ZN Thermostat Schedule,  !- Control Type Schedule Name
    ThermostatSetpoint:DualSetpoint,  !- Control 1 Object Type
    Warehouse WholeBuilding Thermostat 22;  !- Control 1 Name

Schedule:Compact,
    Story 1 East Lower Perimeter Space ZN Thermostat Schedule,  !- Name
    Story 1 East Lower Perimeter Space ZN Thermostat Schedule Type Limits,  !- Schedule Type Limits Name
    Through: 12/31,          !- Field 1
    For: AllDays,            !- Field 2
    Until: 24:00, 4;         !- Field 4

ScheduleTypeLimits,
    Story 1 East Lower Perimeter Space ZN Thermostat Schedule Type Limits,  !- Name
    0,                       !- Lower Limit Value
    4,                       !- Upper Limit Value
    DISCRETE;                !- Numeric Type

ThermostatSetpoint:DualSetpoint,
    Warehouse WholeBuilding Thermostat 22,  !- Name
    NECB-A-Thermostat Setpoint-Heating,  !- Heating Setpoint Temperature Schedule Name
    NECB-A-Thermostat Setpoint-Cooling;  !- Cooling Setpoint Temperature Schedule Name

ScheduleTypeLimits,
    Temperature,             !- Name
    ,                        !- Lower Limit Value
    ,                        !- Upper Limit Value
    Continuous,              !- Numeric Type
    temperature;             !- Unit Type

Schedule:Day:Interval,
    NECB-A-Thermostat Setpoint-Heating Sun|Hol Day,  !- Name
    Temperature,             !- Schedule Type Limits Name
    No,                      !- Interpolate to Timestep
    24:00,                   !- Time 1 {hh:mm}
    18;                      !- Value Until Time 1

Schedule:Day:Interval,
    NECB-A-Thermostat Setpoint-Heating Default|Wkdy Day,  !- Name
    Temperature,             !- Schedule Type Limits Name
    No,                      !- Interpolate to Timestep
    06:00,                   !- Time 1 {hh:mm}
    18,                      !- Value Until Time 1
    07:00,                   !- Time 2 {hh:mm}
    20,                      !- Value Until Time 2
    21:00,                   !- Time 3 {hh:mm}
    22,                      !- Value Until Time 3
    24:00,                   !- Time 4 {hh:mm}
    18;                      !- Value Until Time 4

Schedule:Day:Interval,
    NECB-A-Thermostat Setpoint-Heating Sat Day,  !- Name
    Temperature,             !- Schedule Type Limits Name
    No,                      !- Interpolate to Timestep
    24:00,                   !- Time 1 {hh:mm}
    18;                      !- Value Until Time 1

Schedule:Week:Daily,
    NECB-A-Thermostat Setpoint-Heating Week Rule - Jan1-Dec31,  !- Name
    NECB-A-Thermostat Setpoint-Heating Sun|Hol Day,  !- Sunday Schedule:Day Name
    NECB-A-Thermostat Setpoint-Heating Default|Wkdy Day,  !- Monday Schedule:Day Name
    NECB-A-Thermostat Setpoint-Heating Default|Wkdy Day,  !- Tuesday Schedule:Day Name
    NECB-A-Thermostat Setpoint-Heating Default|Wkdy Day,  !- Wednesday Schedule:Day Name
    NECB-A-Thermostat Setpoint-Heating Default|Wkdy Day,  !- Thursday Schedule:Day Name
    NECB-A-Thermostat Setpoint-Heating Default|Wkdy Day,  !- Friday Schedule:Day Name
    NECB-A-Thermostat Setpoint-Heating Sat Day,  !- Saturday Schedule:Day Name
    NECB-A-Thermostat Setpoint-Heating Default,  !- Holiday Schedule:Day Name
    NECB-A-Thermostat Setpoint-Heating Default,  !- SummerDesignDay Schedule:Day Name
    NECB-A-Thermostat Setpoint-Heating Default,  !- WinterDesignDay Schedule:Day Name
    NECB-A-Thermostat Setpoint-Heating Default,  !- CustomDay1 Schedule:Day Name
    NECB-A-Thermostat Setpoint-Heating Default;  !- CustomDay2 Schedule:Day Name

Schedule:Year,
    NECB-A-Thermostat Setpoint-Heating,  !- Name
    Temperature,             !- Schedule Type Limits Name
    NECB-A-Thermostat Setpoint-Heating Week Rule - Jan1-Dec31,  !- Schedule:Week Name 1
    1,                       !- Start Month 1
    1,                       !- Start Day 1
    12,                      !- End Month 1
    31;                      !- End Day 1

Schedule:Day:Interval,
    NECB-A-Thermostat Setpoint-Heating Default,  !- Name
    Temperature,             !- Schedule Type Limits Name
    No,                      !- Interpolate to Timestep
    06:00,                   !- Time 1 {hh:mm}
    18,                      !- Value Until Time 1
    07:00,                   !- Time 2 {hh:mm}
    20,                      !- Value Until Time 2
    21:00,                   !- Time 3 {hh:mm}
    22,                      !- Value Until Time 3
    24:00,                   !- Time 4 {hh:mm}
    18;                      !- Value Until Time 4

Schedule:Day:Interval,
    NECB-A-Thermostat Setpoint-Cooling Sun|Hol Day,  !- Name
    Temperature,             !- Schedule Type Limits Name
    No,                      !- Interpolate to Timestep
    24:00,                   !- Time 1 {hh:mm}
    35;                      !- Value Until Time 1

Schedule:Day:Interval,
    NECB-A-Thermostat Setpoint-Cooling Default|Wkdy Day,  !- Name
    Temperature,             !- Schedule Type Limits Name
    No,                      !- Interpolate to Timestep
    06:00,                   !- Time 1 {hh:mm}
    35,                      !- Value Until Time 1
    21:00,                   !- Time 2 {hh:mm}
    24,                      !- Value Until Time 2
    24:00,                   !- Time 3 {hh:mm}
    35;                      !- Value Until Time 3

Schedule:Day:Interval,
    NECB-A-Thermostat Setpoint-Cooling Sat Day,  !- Name
    Temperature,             !- Schedule Type Limits Name
    No,                      !- Interpolate to Timestep
    24:00,                   !- Time 1 {hh:mm}
    35;                      !- Value Until Time 1

Schedule:Week:Daily,
    NECB-A-Thermostat Setpoint-Cooling Week Rule - Jan1-Dec31,  !- Name
    NECB-A-Thermostat Setpoint-Cooling Sun|Hol Day,  !- Sunday Schedule:Day Name
    NECB-A-Thermostat Setpoint-Cooling Default|Wkdy Day,  !- Monday Schedule:Day Name
    NECB-A-Thermostat Setpoint-Cooling Default|Wkdy Day,  !- Tuesday Schedule:Day Name
    NECB-A-Thermostat Setpoint-Cooling Default|Wkdy Day,  !- Wednesday Schedule:Day Name
    NECB-A-Thermostat Setpoint-Cooling Default|Wkdy Day,  !- Thursday Schedule:Day Name
    NECB-A-Thermostat Setpoint-Cooling Default|Wkdy Day,  !- Friday Schedule:Day Name
    NECB-A-Thermostat Setpoint-Cooling Sat Day,  !- Saturday Schedule:Day Name
    NECB-A-Thermostat Setpoint-Cooling Default,  !- Holiday Schedule:Day Name
    NECB-A-Thermostat Setpoint-Cooling Default,  !- SummerDesignDay Schedule:Day Name
    NECB-A-Thermostat Setpoint-Cooling Default,  !- WinterDesignDay Schedule:Day Name
    NECB-A-Thermostat Setpoint-Cooling Default,  !- CustomDay1 Schedule:Day Name
    NECB-A-Thermostat Setpoint-Cooling Default;  !- CustomDay2 Schedule:Day Name

Schedule:Year,
    NECB-A-Thermostat Setpoint-Cooling,  !- Name
    Temperature,             !- Schedule Type Limits Name
    NECB-A-Thermostat Setpoint-Cooling Week Rule - Jan1-Dec31,  !- Schedule:Week Name 1
    1,                       !- Start Month 1
    1,                       !- Start Day 1
    12,                      !- End Month 1
    31;                      !- End Day 1

Schedule:Day:Interval,
    NECB-A-Thermostat Setpoint-Cooling Default,  !- Name
    Temperature,             !- Schedule Type Limits Name
    No,                      !- Interpolate to Timestep
    06:00,                   !- Time 1 {hh:mm}
    35,                      !- Value Until Time 1
    21:00,                   !- Time 2 {hh:mm}
    24,                      !- Value Until Time 2
    24:00,                   !- Time 3 {hh:mm}
    35;                      !- Value Until Time 3

ZoneHVAC:EquipmentConnections,
    Story 1 East Lower Perimeter Space ZN,  !- Zone Name
    Story 1 East Lower Perimeter Space ZN Equipment List,  !- Zone Conditioning Equipment List Name
    Story 1 East Lower Perimeter Space ZN Inlet Node List,  !- Zone Air Inlet Node or NodeList Name
    Story 1 East Lower Perimeter Space ZN Exhaust Node List,  !- Zone Air Exhaust Node or NodeList Name
    Node 1;                  !- Zone Air Node Name

NodeList,
    Story 1 East Lower Perimeter Space ZN Inlet Node List,  !- Name
    Node 3;                  !- Node 1 Name

NodeList,
    Story 1 East Lower Perimeter Space ZN Exhaust Node List,  !- Name
    Node 2;                  !- Node 1 Name

ZoneHVAC:IdealLoadsAirSystem,
    Zone HVAC Ideal Loads Air System 1,  !- Name
    ,                        !- Availability Schedule Name
    Node 3,                  !- Zone Supply Air Node Name
    Node 2,                  !- Zone Exhaust Air Node Name
    ,                        !- System Inlet Air Node Name
    ,                        !- Maximum Heating Supply Air Temperature {C}
    ,                        !- Minimum Cooling Supply Air Temperature {C}
    ,                        !- Maximum Heating Supply Air Humidity Ratio {kgWater/kgDryAir}
    ,                        !- Minimum Cooling Supply Air Humidity Ratio {kgWater/kgDryAir}
    ,                        !- Heating Limit
    ,                        !- Maximum Heating Air Flow Rate {m3/s}
    ,                        !- Maximum Sensible Heating Capacity {W}
    ,                        !- Cooling Limit
    ,                        !- Maximum Cooling Air Flow Rate {m3/s}
    ,                        !- Maximum Total Cooling Capacity {W}
    ,                        !- Heating Availability Schedule Name
    ,                        !- Cooling Availability Schedule Name
    ,                        !- Dehumidification Control Type
    ,                        !- Cooling Sensible Heat Ratio {dimensionless}
    ,                        !- Humidification Control Type
    Warehouse WholeBuilding Ventilation,  !- Design Specification Outdoor Air Object Name
    ,                        !- Outdoor Air Inlet Node Name
    ,                        !- Demand Controlled Ventilation Type
    ,                        !- Outdoor Air Economizer Type
    ,                        !- Heat Recovery Type
    ,                        !- Sensible Heat Recovery Effectiveness {dimensionless}
    ;                        !- Latent Heat Recovery Effectiveness {dimensionless}

DesignSpecification:OutdoorAir,
    Warehouse WholeBuilding Ventilation,  !- Name
    Sum,                     !- Outdoor Air Method
    0,                       !- Outdoor Air Flow per Person {m3/s-person}
    0.00030988,              !- Outdoor Air Flow per Zone Floor Area {m3/s-m2}
    0,                       !- Outdoor Air Flow per Zone {m3/s}
    0;                       !- Outdoor Air Flow Air Changes per Hour {1/hr}

ZoneHVAC:EquipmentList,
    Story 1 East Lower Perimeter Space ZN Equipment List,  !- Name
    SequentialLoad,          !- Load Distribution Scheme
    ZoneHVAC:IdealLoadsAirSystem,  !- Zone Equipment 1 Object Type
    Zone HVAC Ideal Loads Air System 1,  !- Zone Equipment 1 Name
    1,                       !- Zone Equipment 1 Cooling Sequence
    1,                       !- Zone Equipment 1 Heating or No-Load Sequence
    1,                       !- Zone Equipment 1 Sequential Cooling Fraction
    1;                       !- Zone Equipment 1 Sequential Heating Fraction

Sizing:Zone,
    Story 1 East Lower Perimeter Space ZN,  !- Zone or ZoneList Name
    SupplyAirTemperature,    !- Zone Cooling Design Supply Air Temperature Input Method
    14,                      !- Zone Cooling Design Supply Air Temperature {C}
    11.11,                   !- Zone Cooling Design Supply Air Temperature Difference {deltaC}
    SupplyAirTemperature,    !- Zone Heating Design Supply Air Temperature Input Method
    40,                      !- Zone Heating Design Supply Air Temperature {C}
    11.11,                   !- Zone Heating Design Supply Air Temperature Difference {deltaC}
    0.0085,                  !- Zone Cooling Design Supply Air Humidity Ratio {kgWater/kgDryAir}
    0.008,                   !- Zone Heating Design Supply Air Humidity Ratio {kgWater/kgDryAir}
    Warehouse WholeBuilding Ventilation,  !- Design Specification Outdoor Air Object Name
    ,                        !- Zone Heating Sizing Factor
    ,                        !- Zone Cooling Sizing Factor
    DesignDay,               !- Cooling Design Air Flow Method
    0,                       !- Cooling Design Air Flow Rate {m3/s}
    0.000762,                !- Cooling Minimum Air Flow per Zone Floor Area {m3/s-m2}
    0,                       !- Cooling Minimum Air Flow {m3/s}
    0,                       !- Cooling Minimum Air Flow Fraction
    DesignDay,               !- Heating Design Air Flow Method
    0,                       !- Heating Design Air Flow Rate {m3/s}
    0.002032,                !- Heating Maximum Air Flow per Zone Floor Area {m3/s-m2}
    0.1415762,               !- Heating Maximum Air Flow {m3/s}
    0.3,                     !- Heating Maximum Air Flow Fraction
    Story 1 East Lower Perimeter Space ZN Design Spec Zone Air Dist,  !- Design Specification Zone Air Distribution Object Name
    No;                      !- Account for Dedicated Outdoor Air System

DesignSpecification:ZoneAirDistribution,
    Story 1 East Lower Perimeter Space ZN Design Spec Zone Air Dist,  !- Name
    1,                       !- Zone Air Distribution Effectiveness in Cooling Mode {dimensionless}
    1;                       !- Zone Air Distribution Effectiveness in Heating Mode {dimensionless}

Zone,
    Story 1 East Upper Perimeter Space ZN,  !- Name
    -0,                      !- Direction of Relative North {deg}
    129.594078649987, 94.0127190999916, 0;
                                        !- X,Y,Z  {m}

BuildingSurface:Detailed,
    Surface 25,              !- Name
    Floor,                   !- Surface Type
    BTAP-Grnd-Floor-Mass:U-0.757,  !- Construction Name
    Story 1 East Upper Perimeter Space ZN,  !- Zone Name
    Ground,                  !- Outside Boundary Condition
    ,                        !- Outside Boundary Condition Object
    NoSun,                   !- Sun Exposure
    NoWind,                  !- Wind Exposure
    ,                        !- View Factor to Ground
    ,                        !- Number of Vertices